<?xml version="1.0" encoding="UTF-8"?>
<nodes>
    <node id="J1" x="0"    y="0"    type="traffic_light"/>
    <node id="J2" x="200"  y="0"    type="priority"/>
    <node id="J3" x="0"    y="200"  type="priority"/>
    <node id="J4" x="-200" y="0"    type="priority"/>
    <node id="J5" x="0"    y="-200" type="priority"/>
</nodes>