<?xml version="1.0" encoding="UTF-8"?>
<edges>
    <edge id="E1" from="J4" to="J1" numLanes="2" speed="13.89"/>
    <edge id="E2" from="J1" to="J2" numLanes="2" speed="13.89"/>
    <edge id="E3" from="J5" to="J1" numLanes="2" speed="13.89"/>
    <edge id="E4" from="J1" to="J3" numLanes="2" speed="13.89"/>
    <edge id="E1r" from="J1" to="J4" numLanes="2" speed="13.89"/>
    <edge id="E3r" from="J1" to="J5" numLanes="2" speed="13.89"/>
</edges>