<?xml version="1.0" encoding="UTF-8"?>

<!-- generated on 2026-06-25T15:37:34.449010-05:00 by Eclipse SUMO netconvert 1.27.1
<netconvertConfiguration xmlns:xsi="http://www.w3.org/2001/XMLSchema-instance" xsi:noNamespaceSchemaLocation="http://sumo.dlr.de/xsd/netconvertConfiguration.xsd">

    <input>
        <node-files value="network.nod.xml"/>
        <edge-files value="network.edg.xml"/>
    </input>

    <output>
        <output-file value="network.net.xml"/>
    </output>

    <tls_building>
        <tls.guess value="true"/>
    </tls_building>

</netconvertConfiguration>
-->

<net version="1.20" junctionCornerDetail="5" limitTurnSpeed="5.50" xmlns:xsi="http://www.w3.org/2001/XMLSchema-instance" xsi:noNamespaceSchemaLocation="http://sumo.dlr.de/xsd/net_file.xsd">

    <location netOffset="200.00,200.00" convBoundary="0.00,0.00,400.00,400.00" origBoundary="-200.00,-200.00,200.00,200.00" projParameter="!"/>

    <edge id=":J1_0" function="internal">
        <lane id=":J1_0_0" index="0" speed="6.51" length="9.03" shape="204.80,189.60 205.15,192.05 206.20,193.80 207.95,194.85 210.40,195.20"/>
    </edge>
    <edge id=":J1_1" function="internal">
        <lane id=":J1_1_0" index="0" speed="13.89" length="20.80" shape="204.80,189.60 204.80,210.40"/>
        <lane id=":J1_1_1" index="1" speed="13.89" length="20.80" shape="201.60,189.60 201.60,210.40"/>
    </edge>
    <edge id=":J1_3" function="internal">
        <lane id=":J1_3_0" index="0" speed="9.84" length="21.99" shape="201.60,189.60 200.85,196.25 198.60,201.00 194.85,203.85 189.60,204.80"/>
        <lane id=":J1_3_1" index="1" speed="9.26" length="19.35" shape="201.60,189.60 200.85,194.85 198.60,198.60 194.85,200.85 189.60,201.60"/>
    </edge>
    <edge id=":J1_5" function="internal">
        <lane id=":J1_5_0" index="0" speed="3.65" length="1.44" shape="201.60,189.60 200.80,190.80"/>
    </edge>
    <edge id=":J1_12" function="internal">
        <lane id=":J1_12_0" index="0" speed="3.65" length="3.23" shape="200.80,190.80 200.00,191.20 199.20,190.80 198.40,189.60"/>
    </edge>
    <edge id=":J1_6" function="internal">
        <lane id=":J1_6_0" index="0" speed="6.51" length="9.03" shape="189.60,195.20 192.05,194.85 193.80,193.80 194.85,192.05 195.20,189.60"/>
        <lane id=":J1_6_1" index="1" speed="7.33" length="11.73" shape="189.60,195.20 193.45,194.85 196.20,193.80 197.85,192.05 198.40,189.60"/>
    </edge>
    <edge id=":J1_8" function="internal">
        <lane id=":J1_8_0" index="0" speed="13.89" length="20.80" shape="189.60,195.20 210.40,195.20"/>
        <lane id=":J1_8_1" index="1" speed="13.89" length="20.80" shape="189.60,198.40 210.40,198.40"/>
    </edge>
    <edge id=":J1_10" function="internal">
        <lane id=":J1_10_0" index="0" speed="9.26" length="19.35" shape="189.60,198.40 194.85,199.15 198.60,201.40 200.85,205.15 201.60,210.40"/>
    </edge>
    <edge id=":J1_11" function="internal">
        <lane id=":J1_11_0" index="0" speed="3.65" length="4.67" shape="189.60,198.40 190.80,199.20 191.20,200.00 190.80,200.80 189.60,201.60"/>
    </edge>
    <edge id=":J4_0" function="internal">
        <lane id=":J4_0_0" index="0" speed="3.65" length="4.67" shape="0.00,201.60 -1.20,200.80 -1.60,200.00 -1.20,199.20 0.00,198.40"/>
    </edge>
    <edge id=":J5_0" function="internal">
        <lane id=":J5_0_0" index="0" speed="3.65" length="4.67" shape="198.40,0.00 199.20,-1.20 200.00,-1.60 200.80,-1.20 201.60,0.00"/>
    </edge>

    <edge id="E1" from="J4" to="J1" priority="-1">
        <lane id="E1_0" index="0" speed="13.89" length="189.60" shape="0.00,195.20 189.60,195.20"/>
        <lane id="E1_1" index="1" speed="13.89" length="189.60" shape="0.00,198.40 189.60,198.40"/>
    </edge>
    <edge id="E1r" from="J1" to="J4" priority="-1">
        <lane id="E1r_0" index="0" speed="13.89" length="189.60" shape="189.60,204.80 0.00,204.80"/>
        <lane id="E1r_1" index="1" speed="13.89" length="189.60" shape="189.60,201.60 0.00,201.60"/>
    </edge>
    <edge id="E2" from="J1" to="J2" priority="-1">
        <lane id="E2_0" index="0" speed="13.89" length="189.60" shape="210.40,195.20 400.00,195.20"/>
        <lane id="E2_1" index="1" speed="13.89" length="189.60" shape="210.40,198.40 400.00,198.40"/>
    </edge>
    <edge id="E3" from="J5" to="J1" priority="-1">
        <lane id="E3_0" index="0" speed="13.89" length="189.60" shape="204.80,0.00 204.80,189.60"/>
        <lane id="E3_1" index="1" speed="13.89" length="189.60" shape="201.60,0.00 201.60,189.60"/>
    </edge>
    <edge id="E3r" from="J1" to="J5" priority="-1">
        <lane id="E3r_0" index="0" speed="13.89" length="189.60" shape="195.20,189.60 195.20,0.00"/>
        <lane id="E3r_1" index="1" speed="13.89" length="189.60" shape="198.40,189.60 198.40,0.00"/>
    </edge>
    <edge id="E4" from="J1" to="J3" priority="-1">
        <lane id="E4_0" index="0" speed="13.89" length="189.60" shape="204.80,210.40 204.80,400.00"/>
        <lane id="E4_1" index="1" speed="13.89" length="189.60" shape="201.60,210.40 201.60,400.00"/>
    </edge>

    <tlLogic id="J1" type="static" programID="0" offset="0">
        <phase duration="42" state="GGGGGgGGrrrr"/>
        <phase duration="3"  state="yyyyyyGGrrrr"/>
        <phase duration="42" state="rrrrrrGGGGGG"/>
        <phase duration="3"  state="rrrrrrGGyyyy"/>
    </tlLogic>

    <junction id="J1" type="traffic_light" x="200.00" y="200.00" incLanes="E3_0 E3_1 E1_0 E1_1" intLanes=":J1_0_0 :J1_1_0 :J1_1_1 :J1_3_0 :J1_3_1 :J1_12_0 :J1_6_0 :J1_6_1 :J1_8_0 :J1_8_1 :J1_10_0 :J1_11_0" shape="200.00,210.40 206.40,210.40 206.51,207.22 206.84,204.62 207.40,202.60 208.18,201.16 209.18,200.29 210.40,200.00 210.40,193.60 208.18,193.16 207.40,192.60 206.84,191.82 206.51,190.82 206.40,189.60 193.60,189.60 193.16,191.82 192.60,192.60 191.82,193.16 190.82,193.49 189.60,193.60 189.60,206.40 192.78,206.51 195.38,206.84 197.40,207.40 198.84,208.18 199.71,209.18">
        <request index="0"  response="000000000000" foes="001100000000" cont="0"/>
        <request index="1"  response="000000000000" foes="011100000000" cont="0"/>
        <request index="2"  response="000000000000" foes="011100000000" cont="0"/>
        <request index="3"  response="000000000000" foes="111100000000" cont="0"/>
        <request index="4"  response="000000000000" foes="111100000000" cont="0"/>
        <request index="5"  response="000011000000" foes="000011000000" cont="1"/>
        <request index="6"  response="000000000000" foes="000000100000" cont="0"/>
        <request index="7"  response="000000000000" foes="000000100000" cont="0"/>
        <request index="8"  response="000000011111" foes="000000011111" cont="0"/>
        <request index="9"  response="000000011111" foes="000000011111" cont="0"/>
        <request index="10" response="000000011110" foes="000000011110" cont="0"/>
        <request index="11" response="000000011000" foes="000000011000" cont="0"/>
    </junction>
    <junction id="J2" type="dead_end" x="400.00" y="200.00" incLanes="E2_0 E2_1" intLanes="" shape="400.00,193.60 400.00,200.00"/>
    <junction id="J3" type="dead_end" x="200.00" y="400.00" incLanes="E4_0 E4_1" intLanes="" shape="206.40,400.00 200.00,400.00"/>
    <junction id="J4" type="priority" x="0.00" y="200.00" incLanes="E1r_0 E1r_1" intLanes=":J4_0_0" shape="0.00,200.00 0.00,206.40 0.00,200.00">
        <request index="0" response="0" foes="0" cont="0"/>
    </junction>
    <junction id="J5" type="priority" x="200.00" y="0.00" incLanes="E3r_0 E3r_1" intLanes=":J5_0_0" shape="200.00,0.00 193.60,0.00 200.00,0.00">
        <request index="0" response="0" foes="0" cont="0"/>
    </junction>

    <junction id=":J1_12_0" type="internal" x="200.80" y="190.80" incLanes=":J1_5_0 E1_0" intLanes=":J1_6_0 :J1_6_1"/>

    <connection from="E1" to="E3r" fromLane="0" toLane="0" via=":J1_6_0" tl="J1" linkIndex="6" dir="r" state="O"/>
    <connection from="E1" to="E3r" fromLane="0" toLane="1" via=":J1_6_1" tl="J1" linkIndex="7" dir="r" state="O"/>
    <connection from="E1" to="E2" fromLane="0" toLane="0" via=":J1_8_0" tl="J1" linkIndex="8" dir="s" state="o"/>
    <connection from="E1" to="E2" fromLane="1" toLane="1" via=":J1_8_1" tl="J1" linkIndex="9" dir="s" state="o"/>
    <connection from="E1" to="E4" fromLane="1" toLane="1" via=":J1_10_0" tl="J1" linkIndex="10" dir="l" state="o"/>
    <connection from="E1" to="E1r" fromLane="1" toLane="1" via=":J1_11_0" tl="J1" linkIndex="11" dir="t" state="o"/>
    <connection from="E1r" to="E1" fromLane="1" toLane="1" via=":J4_0_0" dir="t" state="M"/>
    <connection from="E3" to="E2" fromLane="0" toLane="0" via=":J1_0_0" tl="J1" linkIndex="0" dir="r" state="O"/>
    <connection from="E3" to="E4" fromLane="0" toLane="0" via=":J1_1_0" tl="J1" linkIndex="1" dir="s" state="O"/>
    <connection from="E3" to="E4" fromLane="1" toLane="1" via=":J1_1_1" tl="J1" linkIndex="2" dir="s" state="O"/>
    <connection from="E3" to="E1r" fromLane="1" toLane="0" via=":J1_3_0" tl="J1" linkIndex="3" dir="l" state="O"/>
    <connection from="E3" to="E1r" fromLane="1" toLane="1" via=":J1_3_1" tl="J1" linkIndex="4" dir="l" state="O"/>
    <connection from="E3" to="E3r" fromLane="1" toLane="1" via=":J1_5_0" tl="J1" linkIndex="5" dir="t" state="o"/>
    <connection from="E3r" to="E3" fromLane="1" toLane="1" via=":J5_0_0" dir="t" state="M"/>

    <connection from=":J1_0" to="E2" fromLane="0" toLane="0" dir="r" state="M"/>
    <connection from=":J1_1" to="E4" fromLane="0" toLane="0" dir="s" state="M"/>
    <connection from=":J1_1" to="E4" fromLane="1" toLane="1" dir="s" state="M"/>
    <connection from=":J1_3" to="E1r" fromLane="0" toLane="0" dir="l" state="M"/>
    <connection from=":J1_3" to="E1r" fromLane="1" toLane="1" dir="l" state="M"/>
    <connection from=":J1_5" to="E3r" fromLane="0" toLane="1" via=":J1_12_0" dir="t" state="m"/>
    <connection from=":J1_12" to="E3r" fromLane="0" toLane="1" dir="t" state="M"/>
    <connection from=":J1_6" to="E3r" fromLane="0" toLane="0" dir="r" state="M"/>
    <connection from=":J1_6" to="E3r" fromLane="1" toLane="1" dir="r" state="M"/>
    <connection from=":J1_8" to="E2" fromLane="0" toLane="0" dir="s" state="M"/>
    <connection from=":J1_8" to="E2" fromLane="1" toLane="1" dir="s" state="M"/>
    <connection from=":J1_10" to="E4" fromLane="0" toLane="1" dir="l" state="M"/>
    <connection from=":J1_11" to="E1r" fromLane="0" toLane="1" dir="t" state="M"/>
    <connection from=":J4_0" to="E1" fromLane="0" toLane="1" dir="t" state="M"/>
    <connection from=":J5_0" to="E3" fromLane="0" toLane="1" dir="t" state="M"/>

</net>
